 .Sol file Watershed HRU:542 Subbasin:25 HRU:13 Luse:FRST Soil: ACu-11817-1 Slope: 49-9999 2020/9/9 0:00:00 ArcSWAT 2012.10_2.19
 Soil Name: ACu-11817-1
 Soil Hydrologic Group: C
 Maximum rooting depth(mm) : 1000.00
 Porosity fraction from which anions are excluded: 0.500
 Crack volume potential of soil: 0.500
 Texture 1                : Sandy-Loam
 Depth                [mm]:      300.00     1000.00
 Bulk Density Moist [g/cc]:        1.40        1.32
 Ave. AW Incl. Rock Frag  :        0.10        0.15
 Ksat. (est.)      [mm/hr]:       57.42       29.74
 Organic Carbon [weight %]:        0.53        0.98
 Clay           [weight %]:       15.00        9.00
 Silt           [weight %]:       10.00       32.00
 Sand           [weight %]:       75.00       59.00
 Rock Fragments   [vol. %]:        4.00       18.00
 Soil Albedo (Moist)      :        0.23        0.23
 Erosion K                :        0.12        0.14
 Salinity (EC, Form 5)    :        0.10        0.10
 Soil pH                  :        4.80        5.30
 Soil CACO3               :        0.00        0.00
                              
