 .Sol file Watershed HRU:407 Subbasin:20 HRU:13 Luse:FRST Soil: CMo-11836-1 Slope: 49-9999 2020/9/9 0:00:00 ArcSWAT 2012.10_2.19
 Soil Name: CMo-11836-1
 Soil Hydrologic Group: C
 Maximum rooting depth(mm) : 1000.00
 Porosity fraction from which anions are excluded: 0.500
 Crack volume potential of soil: 0.500
 Texture 1                : Sandy-Clay-Loam
 Depth                [mm]:      300.00     1000.00
 Bulk Density Moist [g/cc]:        1.32        1.42
 Ave. AW Incl. Rock Frag  :        0.13        0.11
 Ksat. (est.)      [mm/hr]:       16.51        8.54
 Organic Carbon [weight %]:        1.02        0.24
 Clay           [weight %]:       23.00       38.00
 Silt           [weight %]:       26.00       10.00
 Sand           [weight %]:       51.00       52.00
 Rock Fragments   [vol. %]:        1.00        1.00
 Soil Albedo (Moist)      :        0.22        0.22
 Erosion K                :        0.13        0.12
 Salinity (EC, Form 5)    :        0.10        0.00
 Soil pH                  :        4.80        4.80
 Soil CACO3               :        0.00        0.00
                              
