 .Sol file Watershed HRU:412 Subbasin:20 HRU:18 Luse:FRST Soil: CMu-11453-1 Slope: 10-49 2020/9/9 0:00:00 ArcSWAT 2012.10_2.19
 Soil Name: CMu-11453-1
 Soil Hydrologic Group: C
 Maximum rooting depth(mm) : 1000.00
 Porosity fraction from which anions are excluded: 0.500
 Crack volume potential of soil: 0.500
 Texture 1                : Loam
 Depth                [mm]:      300.00     1000.00
 Bulk Density Moist [g/cc]:        1.12        1.35
 Ave. AW Incl. Rock Frag  :        0.16        0.17
 Ksat. (est.)      [mm/hr]:       14.71        8.45
 Organic Carbon [weight %]:        2.72        0.80
 Clay           [weight %]:       23.00       21.00
 Silt           [weight %]:       36.00       46.00
 Sand           [weight %]:       41.00       33.00
 Rock Fragments   [vol. %]:        8.00        5.00
 Soil Albedo (Moist)      :        0.22        0.22
 Erosion K                :        0.13        0.14
 Salinity (EC, Form 5)    :        0.10        0.10
 Soil pH                  :        5.30        5.30
 Soil CACO3               :        0.00        0.00
                              
