 .Sol file Watershed HRU:748 Subbasin:33 HRU:20 Luse:FRST Soil: ALh-11839-1 Slope: 49-9999 2020/9/9 0:00:00 ArcSWAT 2012.10_2.19
 Soil Name: ALh-11839-1
 Soil Hydrologic Group: C
 Maximum rooting depth(mm) : 1000.00
 Porosity fraction from which anions are excluded: 0.500
 Crack volume potential of soil: 0.500
 Texture 1                : Loam
 Depth                [mm]:      300.00     1000.00
 Bulk Density Moist [g/cc]:        1.30        1.41
 Ave. AW Incl. Rock Frag  :        0.15        0.14
 Ksat. (est.)      [mm/hr]:       10.93        8.55
 Organic Carbon [weight %]:        1.16        0.40
 Clay           [weight %]:       23.00       25.00
 Silt           [weight %]:       37.00       34.00
 Sand           [weight %]:       40.00       41.00
 Rock Fragments   [vol. %]:        8.00        6.00
 Soil Albedo (Moist)      :        0.22        0.22
 Erosion K                :        0.13        0.15
 Salinity (EC, Form 5)    :        0.10        0.10
 Soil pH                  :        4.90        5.10
 Soil CACO3               :        0.00        0.00
                              
