 .Sol file Watershed HRU:1329 Subbasin:54 HRU:20 Luse:WATR Soil: UR-11925-0 Slope: 0-10 2020/9/9 0:00:00 ArcSWAT 2012.10_2.19
 Soil Name: UR-11925-0
 Soil Hydrologic Group: A
 Maximum rooting depth(mm) : 1000.00
 Porosity fraction from which anions are excluded: 0.000
 Crack volume potential of soil: 0.000
 Texture 1                : Not-Soil
 Depth                [mm]:      300.00     1000.00
 Bulk Density Moist [g/cc]:        0.00        0.00
 Ave. AW Incl. Rock Frag  :        0.00        0.00
 Ksat. (est.)      [mm/hr]:        0.01        0.01
 Organic Carbon [weight %]:        0.00        0.00
 Clay           [weight %]:        0.00        0.00
 Silt           [weight %]:        0.00        0.00
 Sand           [weight %]:        0.00        0.00
 Rock Fragments   [vol. %]:        0.00        0.00
 Soil Albedo (Moist)      :        0.00        0.00
 Erosion K                :        0.00        0.00
 Salinity (EC, Form 5)    :        0.00        0.00
 Soil pH                  :        5.10        5.10
 Soil CACO3               :        0.00        0.00
                              
