 .Sol file Watershed HRU:1790 Subbasin:78 HRU:26 Luse:PAST Soil: LXf-11366-1 Slope: 10-49 2020/9/9 0:00:00 ArcSWAT 2012.10_2.19
 Soil Name: LXf-11366-1
 Soil Hydrologic Group: D
 Maximum rooting depth(mm) : 1000.00
 Porosity fraction from which anions are excluded: 0.500
 Crack volume potential of soil: 0.500
 Texture 1                : Clay
 Depth                [mm]:      300.00     1000.00
 Bulk Density Moist [g/cc]:        1.25        1.39
 Ave. AW Incl. Rock Frag  :        0.15        0.11
 Ksat. (est.)      [mm/hr]:        4.89        3.76
 Organic Carbon [weight %]:        1.38        0.34
 Clay           [weight %]:       47.00       55.00
 Silt           [weight %]:       30.00        9.00
 Sand           [weight %]:       23.00       36.00
 Rock Fragments   [vol. %]:        1.00        7.00
 Soil Albedo (Moist)      :        0.21        0.21
 Erosion K                :        0.12        0.10
 Salinity (EC, Form 5)    :        0.10        0.00
 Soil pH                  :        6.60        4.60
 Soil CACO3               :        0.00        0.00
                              
