 .Sol file Watershed HRU:1835 Subbasin:80 HRU:8 Luse:FRST Soil: ACh-11808-1 Slope: 49-9999 2020/9/9 0:00:00 ArcSWAT 2012.10_2.19
 Soil Name: ACh-11808-1
 Soil Hydrologic Group: D
 Maximum rooting depth(mm) : 1000.00
 Porosity fraction from which anions are excluded: 0.500
 Crack volume potential of soil: 0.500
 Texture 1                : Clay
 Depth                [mm]:      300.00     1000.00
 Bulk Density Moist [g/cc]:        1.27        1.39
 Ave. AW Incl. Rock Frag  :        0.14        0.13
 Ksat. (est.)      [mm/hr]:        5.42        2.76
 Organic Carbon [weight %]:        1.24        0.37
 Clay           [weight %]:       48.00       54.00
 Silt           [weight %]:       25.00       22.00
 Sand           [weight %]:       27.00       24.00
 Rock Fragments   [vol. %]:        4.00       22.00
 Soil Albedo (Moist)      :        0.21        0.21
 Erosion K                :        0.11        0.13
 Salinity (EC, Form 5)    :        0.10        0.10
 Soil pH                  :        4.80        5.10
 Soil CACO3               :        0.00        0.00
                              
