 .Sol file Watershed HRU:181 Subbasin:8 HRU:13 Luse:AGRC Soil: ATc-11604-1 Slope: 0-10 2020/9/9 0:00:00 ArcSWAT 2012.10_2.19
 Soil Name: ATc-11604-1
 Soil Hydrologic Group: D
 Maximum rooting depth(mm) : 1000.00
 Porosity fraction from which anions are excluded: 0.500
 Crack volume potential of soil: 0.500
 Texture 1                : Silt-Loam
 Depth                [mm]:      300.00     1000.00
 Bulk Density Moist [g/cc]:        1.30        1.39
 Ave. AW Incl. Rock Frag  :        0.18        0.21
 Ksat. (est.)      [mm/hr]:        7.87       10.41
 Organic Carbon [weight %]:        1.12        0.40
 Clay           [weight %]:       21.00       11.00
 Silt           [weight %]:       50.00       63.00
 Sand           [weight %]:       29.00       26.00
 Rock Fragments   [vol. %]:       10.00       28.00
 Soil Albedo (Moist)      :        0.22        0.22
 Erosion K                :        0.14        0.19
 Salinity (EC, Form 5)    :        0.30        0.10
 Soil pH                  :        7.80        5.10
 Soil CACO3               :        0.00        0.00
                              
