 .Sol file Watershed HRU:140 Subbasin:5 HRU:18 Luse:FRST Soil: CMo-11834-1 Slope: 10-49 2020/9/9 0:00:00 ArcSWAT 2012.10_2.19
 Soil Name: CMo-11834-1
 Soil Hydrologic Group: C
 Maximum rooting depth(mm) : 1000.00
 Porosity fraction from which anions are excluded: 0.500
 Crack volume potential of soil: 0.500
 Texture 1                : Sandy-Clay-Loam
 Depth                [mm]:      300.00     1000.00
 Bulk Density Moist [g/cc]:        1.32        1.41
 Ave. AW Incl. Rock Frag  :        0.13        0.11
 Ksat. (est.)      [mm/hr]:       16.51        5.57
 Organic Carbon [weight %]:        1.02        0.25
 Clay           [weight %]:       23.00       50.00
 Silt           [weight %]:       26.00        4.00
 Sand           [weight %]:       51.00       46.00
 Rock Fragments   [vol. %]:        1.00        1.00
 Soil Albedo (Moist)      :        0.22        0.21
 Erosion K                :        0.13        0.09
 Salinity (EC, Form 5)    :        0.10        0.00
 Soil pH                  :        4.80        6.90
 Soil CACO3               :        0.00        0.00
                              
