 .Sol file Watershed HRU:193 Subbasin:9 HRU:3 Luse:RICE Soil: ACh-11807-1 Slope: 49-9999 2020/9/9 0:00:00 ArcSWAT 2012.10_2.19
 Soil Name: ACh-11807-1
 Soil Hydrologic Group: C
 Maximum rooting depth(mm) : 1000.00
 Porosity fraction from which anions are excluded: 0.500
 Crack volume potential of soil: 0.500
 Texture 1                : Sandy-Clay-Loam
 Depth                [mm]:      300.00     1000.00
 Bulk Density Moist [g/cc]:        1.33        1.41
 Ave. AW Incl. Rock Frag  :        0.13        0.12
 Ksat. (est.)      [mm/hr]:       16.94        8.46
 Organic Carbon [weight %]:        1.00        0.40
 Clay           [weight %]:       24.00       38.00
 Silt           [weight %]:       24.00       11.00
 Sand           [weight %]:       52.00       51.00
 Rock Fragments   [vol. %]:       10.00        1.00
 Soil Albedo (Moist)      :        0.22        0.22
 Erosion K                :        0.13        0.12
 Salinity (EC, Form 5)    :        0.10        2.80
 Soil pH                  :        4.90        4.90
 Soil CACO3               :        0.00        0.00
                              
