 .Sol file Watershed HRU:4 Subbasin:1 HRU:4 Luse:FRST Soil: ACu-11818-1 Slope: 0-10 2020/9/9 0:00:00 ArcSWAT 2012.10_2.19
 Soil Name: ACu-11818-1
 Soil Hydrologic Group: D
 Maximum rooting depth(mm) : 1000.00
 Porosity fraction from which anions are excluded: 0.500
 Crack volume potential of soil: 0.500
 Texture 1                : Clay
 Depth                [mm]:      300.00     1000.00
 Bulk Density Moist [g/cc]:        1.07        1.39
 Ave. AW Incl. Rock Frag  :        0.14        0.12
 Ksat. (est.)      [mm/hr]:        7.02        2.95
 Organic Carbon [weight %]:        3.07        0.30
 Clay           [weight %]:       50.00       54.00
 Silt           [weight %]:       22.00       19.00
 Sand           [weight %]:       28.00       27.00
 Rock Fragments   [vol. %]:       10.00        1.00
 Soil Albedo (Moist)      :        0.21        0.21
 Erosion K                :        0.11        0.13
 Salinity (EC, Form 5)    :        0.10        0.20
 Soil pH                  :        4.80        6.70
 Soil CACO3               :        0.00        0.00
                              
