 .Sol file Watershed HRU:806 Subbasin:34 HRU:40 Luse:PAST Soil: LVh-11864-1 Slope: 10-49 2020/9/9 0:00:00 ArcSWAT 2012.10_2.19
 Soil Name: LVh-11864-1
 Soil Hydrologic Group: C
 Maximum rooting depth(mm) : 1000.00
 Porosity fraction from which anions are excluded: 0.500
 Crack volume potential of soil: 0.500
 Texture 1                : Loam
 Depth                [mm]:      300.00     1000.00
 Bulk Density Moist [g/cc]:        1.36        1.40
 Ave. AW Incl. Rock Frag  :        0.15        0.16
 Ksat. (est.)      [mm/hr]:       10.72        9.53
 Organic Carbon [weight %]:        0.74        0.40
 Clay           [weight %]:       22.00       18.00
 Silt           [weight %]:       37.00       46.00
 Sand           [weight %]:       41.00       36.00
 Rock Fragments   [vol. %]:        4.00       10.00
 Soil Albedo (Moist)      :        0.22        0.22
 Erosion K                :        0.14        0.17
 Salinity (EC, Form 5)    :        0.10        0.50
 Soil pH                  :        6.50        5.10
 Soil CACO3               :        0.00        0.00
                              
