 .Sol file Watershed HRU:713 Subbasin:32 HRU:17 Luse:FRST Soil: ACu-11814-1 Slope: 10-49 2020/9/9 0:00:00 ArcSWAT 2012.10_2.19
 Soil Name: ACu-11814-1
 Soil Hydrologic Group: C
 Maximum rooting depth(mm) : 1000.00
 Porosity fraction from which anions are excluded: 0.500
 Crack volume potential of soil: 0.500
 Texture 1                : Sandy-Clay-Loam
 Depth                [mm]:      300.00     1000.00
 Bulk Density Moist [g/cc]:        1.22        1.41
 Ave. AW Incl. Rock Frag  :        0.14        0.11
 Ksat. (est.)      [mm/hr]:       18.78       10.75
 Organic Carbon [weight %]:        1.80        0.36
 Clay           [weight %]:       23.00       37.00
 Silt           [weight %]:       27.00        7.00
 Sand           [weight %]:       50.00       56.00
 Rock Fragments   [vol. %]:       25.00       11.00
 Soil Albedo (Moist)      :        0.22        0.22
 Erosion K                :        0.12        0.11
 Salinity (EC, Form 5)    :        0.10        0.00
 Soil pH                  :        5.00        5.10
 Soil CACO3               :        0.00        0.00
                              
