 .Sol file Watershed HRU:1201 Subbasin:48 HRU:8 Luse:FRST Soil: ACh-11805-1 Slope: 10-49 2020/9/9 0:00:00 ArcSWAT 2012.10_2.19
 Soil Name: ACh-11805-1
 Soil Hydrologic Group: D
 Maximum rooting depth(mm) : 1000.00
 Porosity fraction from which anions are excluded: 0.500
 Crack volume potential of soil: 0.500
 Texture 1                : Clay
 Depth                [mm]:      300.00     1000.00
 Bulk Density Moist [g/cc]:        1.27        1.38
 Ave. AW Incl. Rock Frag  :        0.14        0.14
 Ksat. (est.)      [mm/hr]:        5.42        2.47
 Organic Carbon [weight %]:        1.24        0.40
 Clay           [weight %]:       48.00       54.00
 Silt           [weight %]:       25.00       27.00
 Sand           [weight %]:       27.00       19.00
 Rock Fragments   [vol. %]:        4.00        1.00
 Soil Albedo (Moist)      :        0.21        0.21
 Erosion K                :        0.11        0.14
 Salinity (EC, Form 5)    :        0.10        0.00
 Soil pH                  :        4.80        5.40
 Soil CACO3               :        0.00        0.00
                              
