 .Sol file Watershed HRU:1263 Subbasin:51 HRU:15 Luse:FRST Soil: ACu-11815-1 Slope: 0-10 2020/9/9 0:00:00 ArcSWAT 2012.10_2.19
 Soil Name: ACu-11815-1
 Soil Hydrologic Group: C
 Maximum rooting depth(mm) : 1000.00
 Porosity fraction from which anions are excluded: 0.500
 Crack volume potential of soil: 0.500
 Texture 1                : Sandy-Clay-Loam
 Depth                [mm]:      300.00     1000.00
 Bulk Density Moist [g/cc]:        1.22        1.42
 Ave. AW Incl. Rock Frag  :        0.14        0.11
 Ksat. (est.)      [mm/hr]:       18.78        8.54
 Organic Carbon [weight %]:        1.80        0.24
 Clay           [weight %]:       23.00       38.00
 Silt           [weight %]:       27.00       10.00
 Sand           [weight %]:       50.00       52.00
 Rock Fragments   [vol. %]:       25.00        1.00
 Soil Albedo (Moist)      :        0.22        0.22
 Erosion K                :        0.12        0.12
 Salinity (EC, Form 5)    :        0.10        0.00
 Soil pH                  :        5.00        7.20
 Soil CACO3               :        0.00        0.00
                              
