 .Sol file Watershed HRU:1326 Subbasin:54 HRU:17 Luse:WATR Soil: CMd-11375-1 Slope: 0-10 2020/9/9 0:00:00 ArcSWAT 2012.10_2.19
 Soil Name: CMd-11375-1
 Soil Hydrologic Group: C
 Maximum rooting depth(mm) : 1000.00
 Porosity fraction from which anions are excluded: 0.500
 Crack volume potential of soil: 0.500
 Texture 1                : Loam
 Depth                [mm]:      300.00     1000.00
 Bulk Density Moist [g/cc]:        1.26        1.35
 Ave. AW Incl. Rock Frag  :        0.16        0.17
 Ksat. (est.)      [mm/hr]:       13.12        8.45
 Organic Carbon [weight %]:        1.45        0.80
 Clay           [weight %]:       20.00       21.00
 Silt           [weight %]:       38.00       46.00
 Sand           [weight %]:       42.00       33.00
 Rock Fragments   [vol. %]:       10.00        5.00
 Soil Albedo (Moist)      :        0.22        0.22
 Erosion K                :        0.13        0.14
 Salinity (EC, Form 5)    :        0.10        0.10
 Soil pH                  :        5.10        5.40
 Soil CACO3               :        0.00        0.00
                              
