 .Wgn file Subbasin: 67 STATION NAME:YY 2020/9/9 0:00:00 ArcSWAT 2012.10_2.19
  LATITUDE =  25.00 LONGITUDE = 110.00
  ELEV [m] =  46.00
  RAIN_YRS =  32.00
  8.83 11.15 14.69 21.09 26.24 29.23 32.26 32.45 28.64 23.56 17.27 11.70
  1.91  3.75  7.15 12.87 17.36 21.28 24.64 23.62 19.20 14.26  8.68  3.75
  4.42  5.18  5.44  5.27  4.64  3.66  3.75  3.99  4.63  5.09  5.29  4.44
  3.16  3.86  3.97  3.86  3.32  2.70  2.06  2.41  3.10  3.39  3.97  3.37
  75.0  99.4 150.9 199.5 219.6 306.7 319.4 188.5 102.5  89.0  83.3  50.0
  4.83  6.72  7.83 11.51 14.23 19.45 18.85  9.97  8.65  7.74  8.11  4.23
  2.64  3.03  2.40  2.87  3.75  4.22  4.32  3.73  5.02  4.80  5.76  4.07
  0.26  0.29  0.39  0.44  0.40  0.46  0.41  0.40  0.24  0.20  0.19  0.17
  0.37  0.39  0.42  0.40  0.38  0.42  0.46  0.44  0.40  0.38  0.37  0.36
 12.41 12.78 17.31 17.28 16.41 18.63 21.94 20.75 12.88 10.28  9.44  9.00
 10.45 18.52 17.24 32.61 48.46 84.88 70.22 35.48 30.77 33.23 38.73 13.83
  9.34 10.71 11.72 14.95 18.49 18.89 21.38 20.87 16.93 13.22 10.64  9.79
  0.75  0.77  0.82  0.83  0.81  0.84  0.80  0.78  0.76  0.70  0.70  0.68
  2.88  2.83  2.75  2.68  2.41  2.29  2.77  2.33  2.43  2.46  2.58  2.81
