 .sdr file Watershed HRU:2298 Subbasin:102 HRU:20 Luse:FRST Soil: ATc-11604-1 Slope 0-10 2020/9/9 0:00:00 ArcSWAT 2012.10_2.19
     50.00    | RE: Effective radius of drains (mm)
  15000.00    | SDRAIN: Distance bwtween two drain tubes or tiles (mm)
     10.00    | DRAIN_CO: Drainage coefficient (mm/day)
      1.00    | PC: Pump capacity (def pump cap - 1.042mm/hr or 25mm/day)
      1.00    | LATKSATF: Multiplication factor to determine conk(j1,j) from sol_k(j1,k) for HRU
