 .Sol file Watershed HRU:2678 Subbasin:119 HRU:14 Luse:RICE Soil: RGc-11377-1 Slope: 0-10 2020/9/9 0:00:00 ArcSWAT 2012.10_2.19
 Soil Name: RGc-11377-1
 Soil Hydrologic Group: C
 Maximum rooting depth(mm) : 1000.00
 Porosity fraction from which anions are excluded: 0.500
 Crack volume potential of soil: 0.500
 Texture 1                : Loam
 Depth                [mm]:      300.00     1000.00
 Bulk Density Moist [g/cc]:        1.36        1.35
 Ave. AW Incl. Rock Frag  :        0.15        0.17
 Ksat. (est.)      [mm/hr]:       12.21        8.45
 Organic Carbon [weight %]:        0.75        0.80
 Clay           [weight %]:       21.00       21.00
 Silt           [weight %]:       35.00       46.00
 Sand           [weight %]:       44.00       33.00
 Rock Fragments   [vol. %]:       14.00        5.00
 Soil Albedo (Moist)      :        0.22        0.22
 Erosion K                :        0.14        0.14
 Salinity (EC, Form 5)    :        0.20        0.10
 Soil pH                  :        8.00        5.30
 Soil CACO3               :        0.00        0.00
                              
