2016/4/21 0:00:00 .dat file Daily Record Subbasin  10 ArcSWAT 2012.10_2.16 interface
    
    
    
    
 DAY YEAR          FLOCNST          SEDCNST         ORGNCNST         ORGPCNST          NO3CNST          NH3CNST          NO2CNST         MINPCNST         CBODCNST        DISOXCNST         CHLACNST       SOLPSTCNST       SRBPSTCNST        BACTPCNST       BACTLPCNST        CMTL1CNST        CMTL2CNST        CMTL3CNST
   1 2000        0.000E+00        0.000E+00        0.000E+00        0.000E+00        0.000E+00        0.000E+00        0.000E+00        0.000E+00        0.000E+00        0.000E+00        0.000E+00        0.000E+00        0.000E+00        0.000E+00        0.000E+00        0.000E+00        0.000E+00        0.000E+00
   2 2000        0.000E+00        0.000E+00        0.000E+00        0.000E+00        0.000E+00        0.000E+00        0.000E+00        0.000E+00        0.000E+00        0.000E+00        0.000E+00        0.000E+00        0.000E+00        0.000E+00        0.000E+00        0.000E+00        0.000E+00        0.000E+00
   3 2000        0.000E+00        0.000E+00        0.000E+00        0.000E+00        0.000E+00        0.000E+00        0.000E+00        0.000E+00        0.000E+00        0.000E+00        0.000E+00        0.000E+00        0.000E+00        0.000E+00        0.000E+00        0.000E+00        0.000E+00        0.000E+00
   4 2000        0.000E+00        0.000E+00        0.000E+00        0.000E+00        0.000E+00        0.000E+00        0.000E+00        0.000E+00        0.000E+00        0.000E+00        0.000E+00        0.000E+00        0.000E+00        0.000E+00        0.000E+00        0.000E+00        0.000E+00        0.000E+00
   5 2000        0.000E+00        0.000E+00        0.000E+00        0.000E+00        0.000E+00        0.000E+00        0.000E+00        0.000E+00        0.000E+00        0.000E+00        0.000E+00        0.000E+00        0.000E+00        0.000E+00        0.000E+00        0.000E+00        0.000E+00        0.000E+00
   6 2000        0.000E+00        0.000E+00        0.000E+00        0.000E+00        0.000E+00        0.000E+00        0.000E+00        0.000E+00        0.000E+00        0.000E+00        0.000E+00        0.000E+00        0.000E+00        0.000E+00        0.000E+00        0.000E+00        0.000E+00        0.000E+00
   7 2000        0.000E+00        0.000E+00        0.000E+00        0.000E+00        0.000E+00        0.000E+00        0.000E+00        0.000E+00        0.000E+00        0.000E+00        0.000E+00        0.000E+00        0.000E+00        0.000E+00        0.000E+00        0.000E+00        0.000E+00        0.000E+00
   8 2000        0.000E+00        0.000E+00        0.000E+00        0.000E+00        0.000E+00        0.000E+00        0.000E+00        0.000E+00        0.000E+00        0.000E+00        0.000E+00        0.000E+00        0.000E+00        0.000E+00        0.000E+00        0.000E+00        0.000E+00        0.000E+00
   9 2000        0.000E+00        0.000E+00        0.000E+00        0.000E+00        0.000E+00        0.000E+00        0.000E+00        0.000E+00        0.000E+00        0.000E+00        0.000E+00        0.000E+00        0.000E+00        0.000E+00        0.000E+00        0.000E+00        0.000E+00        0.000E+00
  10 2000        0.000E+00        0.000E+00        0.000E+00        0.000E+00        0.000E+00        0.000E+00        0.000E+00        0.000E+00        0.000E+00        0.000E+00        0.000E+00        0.000E+00        0.000E+00        0.000E+00        0.000E+00        0.000E+00        0.000E+00        0.000E+00
  11 2000        0.000E+00        0.000E+00        0.000E+00        0.000E+00        0.000E+00        0.000E+00        0.000E+00        0.000E+00        0.000E+00        0.000E+00        0.000E+00        0.000E+00        0.000E+00        0.000E+00        0.000E+00        0.000E+00        0.000E+00        0.000E+00
  12 2000        0.000E+00        0.000E+00        0.000E+00        0.000E+00        0.000E+00        0.000E+00        0.000E+00        0.000E+00        0.000E+00        0.000E+00        0.000E+00        0.000E+00        0.000E+00        0.000E+00        0.000E+00        0.000E+00        0.000E+00        0.000E+00
  13 2000        0.000E+00        0.000E+00        0.000E+00        0.000E+00        0.000E+00        0.000E+00        0.000E+00        0.000E+00        0.000E+00        0.000E+00        0.000E+00        0.000E+00        0.000E+00        0.000E+00        0.000E+00        0.000E+00        0.000E+00        0.000E+00
  14 2000        0.000E+00        0.000E+00        0.000E+00        0.000E+00        0.000E+00        0.000E+00        0.000E+00        0.000E+00        0.000E+00        0.000E+00        0.000E+00        0.000E+00        0.000E+00        0.000E+00        0.000E+00        0.000E+00        0.000E+00        0.000E+00
  15 2000        0.000E+00        0.000E+00        0.000E+00        0.000E+00        0.000E+00        0.000E+00        0.000E+00        0.000E+00        0.000E+00        0.000E+00        0.000E+00        0.000E+00        0.000E+00        0.000E+00        0.000E+00        0.000E+00        0.000E+00        0.000E+00
  16 2000        0.000E+00        0.000E+00        0.000E+00        0.000E+00        0.000E+00        0.000E+00        0.000E+00        0.000E+00        0.000E+00        0.000E+00        0.000E+00        0.000E+00        0.000E+00        0.000E+00        0.000E+00        0.000E+00        0.000E+00        0.000E+00
  17 2000        0.000E+00        0.000E+00        0.000E+00        0.000E+00        0.000E+00        0.000E+00        0.000E+00        0.000E+00        0.000E+00        0.000E+00        0.000E+00        0.000E+00        0.000E+00        0.000E+00        0.000E+00        0.000E+00        0.000E+00        0.000E+00
  18 2000        0.000E+00        0.000E+00        0.000E+00        0.000E+00        0.000E+00        0.000E+00        0.000E+00        0.000E+00        0.000E+00        0.000E+00        0.000E+00        0.000E+00        0.000E+00        0.000E+00        0.000E+00        0.000E+00        0.000E+00        0.000E+00
  19 2000        0.000E+00        0.000E+00        0.000E+00        0.000E+00        0.000E+00        0.000E+00        0.000E+00        0.000E+00        0.000E+00        0.000E+00        0.000E+00        0.000E+00        0.000E+00        0.000E+00        0.000E+00        0.000E+00        0.000E+00        0.000E+00
  20 2000        0.000E+00        0.000E+00        0.000E+00        0.000E+00        0.000E+00        0.000E+00        0.000E+00        0.000E+00        0.000E+00        0.000E+00        0.000E+00        0.000E+00        0.000E+00        0.000E+00        0.000E+00        0.000E+00        0.000E+00        0.000E+00
  21 2000        0.000E+00        0.000E+00        0.000E+00        0.000E+00        0.000E+00        0.000E+00        0.000E+00        0.000E+00        0.000E+00        0.000E+00        0.000E+00        0.000E+00        0.000E+00        0.000E+00        0.000E+00        0.000E+00        0.000E+00        0.000E+00
  22 2000        0.000E+00        0.000E+00        0.000E+00        0.000E+00        0.000E+00        0.000E+00        0.000E+00        0.000E+00        0.000E+00        0.000E+00        0.000E+00        0.000E+00        0.000E+00        0.000E+00        0.000E+00        0.000E+00        0.000E+00        0.000E+00
  23 2000        0.000E+00        0.000E+00        0.000E+00        0.000E+00        0.000E+00        0.000E+00        0.000E+00        0.000E+00        0.000E+00        0.000E+00        0.000E+00        0.000E+00        0.000E+00        0.000E+00        0.000E+00        0.000E+00        0.000E+00        0.000E+00
  24 2000        0.000E+00        0.000E+00        0.000E+00        0.000E+00        0.000E+00        0.000E+00        0.000E+00        0.000E+00        0.000E+00        0.000E+00        0.000E+00        0.000E+00        0.000E+00        0.000E+00        0.000E+00        0.000E+00        0.000E+00        0.000E+00
  25 2000        0.000E+00        0.000E+00        0.000E+00        0.000E+00        0.000E+00        0.000E+00        0.000E+00        0.000E+00        0.000E+00        0.000E+00        0.000E+00        0.000E+00        0.000E+00        0.000E+00        0.000E+00        0.000E+00        0.000E+00        0.000E+00
  26 2000        0.000E+00        0.000E+00        0.000E+00        0.000E+00        0.000E+00        0.000E+00        0.000E+00        0.000E+00        0.000E+00        0.000E+00        0.000E+00        0.000E+00        0.000E+00        0.000E+00        0.000E+00        0.000E+00        0.000E+00        0.000E+00
  27 2000        0.000E+00        0.000E+00        0.000E+00        0.000E+00        0.000E+00        0.000E+00        0.000E+00        0.000E+00        0.000E+00        0.000E+00        0.000E+00        0.000E+00        0.000E+00        0.000E+00        0.000E+00        0.000E+00        0.000E+00        0.000E+00
  28 2000        0.000E+00        0.000E+00        0.000E+00        0.000E+00        0.000E+00        0.000E+00        0.000E+00        0.000E+00        0.000E+00        0.000E+00        0.000E+00        0.000E+00        0.000E+00        0.000E+00        0.000E+00        0.000E+00        0.000E+00        0.000E+00
  29 2000        0.000E+00        0.000E+00        0.000E+00        0.000E+00        0.000E+00        0.000E+00        0.000E+00        0.000E+00        0.000E+00        0.000E+00        0.000E+00        0.000E+00        0.000E+00        0.000E+00        0.000E+00        0.000E+00        0.000E+00        0.000E+00
  30 2000        0.000E+00        0.000E+00        0.000E+00        0.000E+00        0.000E+00        0.000E+00        0.000E+00        0.000E+00        0.000E+00        0.000E+00        0.000E+00        0.000E+00        0.000E+00        0.000E+00        0.000E+00        0.000E+00        0.000E+00        0.000E+00
  31 2000        0.000E+00        0.000E+00        0.000E+00        0.000E+00        0.000E+00        0.000E+00        0.000E+00        0.000E+00        0.000E+00        0.000E+00        0.000E+00        0.000E+00        0.000E+00        0.000E+00        0.000E+00        0.000E+00        0.000E+00        0.000E+00
  32 2000        0.000E+00        0.000E+00        0.000E+00        0.000E+00        0.000E+00        0.000E+00        0.000E+00        0.000E+00        0.000E+00        0.000E+00        0.000E+00        0.000E+00        0.000E+00        0.000E+00        0.000E+00        0.000E+00        0.000E+00        0.000E+00
  33 2000        0.000E+00        0.000E+00        0.000E+00        0.000E+00        0.000E+00        0.000E+00        0.000E+00        0.000E+00        0.000E+00        0.000E+00        0.000E+00        0.000E+00        0.000E+00        0.000E+00        0.000E+00        0.000E+00        0.000E+00        0.000E+00
  34 2000        0.000E+00        0.000E+00        0.000E+00        0.000E+00        0.000E+00        0.000E+00        0.000E+00        0.000E+00        0.000E+00        0.000E+00        0.000E+00        0.000E+00        0.000E+00        0.000E+00        0.000E+00        0.000E+00        0.000E+00        0.000E+00
  35 2000        0.000E+00        0.000E+00        0.000E+00        0.000E+00        0.000E+00        0.000E+00        0.000E+00        0.000E+00        0.000E+00        0.000E+00        0.000E+00        0.000E+00        0.000E+00        0.000E+00        0.000E+00        0.000E+00        0.000E+00        0.000E+00
  36 2000        0.000E+00        0.000E+00        0.000E+00        0.000E+00        0.000E+00        0.000E+00        0.000E+00        0.000E+00        0.000E+00        0.000E+00        0.000E+00        0.000E+00        0.000E+00        0.000E+00        0.000E+00        0.000E+00        0.000E+00        0.000E+00
  37 2000        0.000E+00        0.000E+00        0.000E+00        0.000E+00        0.000E+00        0.000E+00        0.000E+00        0.000E+00        0.000E+00        0.000E+00        0.000E+00        0.000E+00        0.000E+00        0.000E+00        0.000E+00        0.000E+00        0.000E+00        0.000E+00
  38 2000        0.000E+00        0.000E+00        0.000E+00        0.000E+00        0.000E+00        0.000E+00        0.000E+00        0.000E+00        0.000E+00        0.000E+00        0.000E+00        0.000E+00        0.000E+00        0.000E+00        0.000E+00        0.000E+00        0.000E+00        0.000E+00
  39 2000        0.000E+00        0.000E+00        0.000E+00        0.000E+00        0.000E+00        0.000E+00        0.000E+00        0.000E+00        0.000E+00        0.000E+00        0.000E+00        0.000E+00        0.000E+00        0.000E+00        0.000E+00        0.000E+00        0.000E+00        0.000E+00
  40 2000        0.000E+00        0.000E+00        0.000E+00        0.000E+00        0.000E+00        0.000E+00        0.000E+00        0.000E+00        0.000E+00        0.000E+00        0.000E+00        0.000E+00        0.000E+00        0.000E+00        0.000E+00        0.000E+00        0.000E+00        0.000E+00
  41 2000        0.000E+00        0.000E+00        0.000E+00        0.000E+00        0.000E+00        0.000E+00        0.000E+00        0.000E+00        0.000E+00        0.000E+00        0.000E+00        0.000E+00        0.000E+00        0.000E+00        0.000E+00        0.000E+00        0.000E+00        0.000E+00
  42 2000        0.000E+00        0.000E+00        0.000E+00        0.000E+00        0.000E+00        0.000E+00        0.000E+00        0.000E+00        0.000E+00        0.000E+00        0.000E+00        0.000E+00        0.000E+00        0.000E+00        0.000E+00        0.000E+00        0.000E+00        0.000E+00
  43 2000        0.000E+00        0.000E+00        0.000E+00        0.000E+00        0.000E+00        0.000E+00        0.000E+00        0.000E+00        0.000E+00        0.000E+00        0.000E+00        0.000E+00        0.000E+00        0.000E+00        0.000E+00        0.000E+00        0.000E+00        0.000E+00
  44 2000        0.000E+00        0.000E+00        0.000E+00        0.000E+00        0.000E+00        0.000E+00        0.000E+00        0.000E+00        0.000E+00        0.000E+00        0.000E+00        0.000E+00        0.000E+00        0.000E+00        0.000E+00        0.000E+00        0.000E+00        0.000E+00
  45 2000        0.000E+00        0.000E+00        0.000E+00        0.000E+00        0.000E+00        0.000E+00        0.000E+00        0.000E+00        0.000E+00        0.000E+00        0.000E+00        0.000E+00        0.000E+00        0.000E+00        0.000E+00        0.000E+00        0.000E+00        0.000E+00
  46 2000        0.000E+00        0.000E+00        0.000E+00        0.000E+00        0.000E+00        0.000E+00        0.000E+00        0.000E+00        0.000E+00        0.000E+00        0.000E+00        0.000E+00        0.000E+00        0.000E+00        0.000E+00        0.000E+00        0.000E+00        0.000E+00
  47 2000        0.000E+00        0.000E+00        0.000E+00        0.000E+00        0.000E+00        0.000E+00        0.000E+00        0.000E+00        0.000E+00        0.000E+00        0.000E+00        0.000E+00        0.000E+00        0.000E+00        0.000E+00        0.000E+00        0.000E+00        0.000E+00
  48 2000        0.000E+00        0.000E+00        0.000E+00        0.000E+00        0.000E+00        0.000E+00        0.000E+00        0.000E+00        0.000E+00        0.000E+00        0.000E+00        0.000E+00        0.000E+00        0.000E+00        0.000E+00        0.000E+00        0.000E+00        0.000E+00
  49 2000        0.000E+00        0.000E+00        0.000E+00        0.000E+00        0.000E+00        0.000E+00        0.000E+00        0.000E+00        0.000E+00        0.000E+00        0.000E+00        0.000E+00        0.000E+00        0.000E+00        0.000E+00        0.000E+00        0.000E+00        0.000E+00
  50 2000        0.000E+00        0.000E+00        0.000E+00        0.000E+00        0.000E+00        0.000E+00        0.000E+00        0.000E+00        0.000E+00        0.000E+00        0.000E+00        0.000E+00        0.000E+00        0.000E+00        0.000E+00        0.000E+00        0.000E+00        0.000E+00
  51 2000        0.000E+00        0.000E+00        0.000E+00        0.000E+00        0.000E+00        0.000E+00        0.000E+00        0.000E+00        0.000E+00        0.000E+00        0.000E+00        0.000E+00        0.000E+00        0.000E+00        0.000E+00        0.000E+00        0.000E+00        0.000E+00
  52 2000        0.000E+00        0.000E+00        0.000E+00        0.000E+00        0.000E+00        0.000E+00        0.000E+00        0.000E+00        0.000E+00        0.000E+00        0.000E+00        0.000E+00        0.000E+00        0.000E+00        0.000E+00        0.000E+00        0.000E+00        0.000E+00
  53 2000        0.000E+00        0.000E+00        0.000E+00        0.000E+00        0.000E+00        0.000E+00        0.000E+00        0.000E+00        0.000E+00        0.000E+00        0.000E+00        0.000E+00        0.000E+00        0.000E+00        0.000E+00        0.000E+00        0.000E+00        0.000E+00
  54 2000        0.000E+00        0.000E+00        0.000E+00        0.000E+00        0.000E+00        0.000E+00        0.000E+00        0.000E+00        0.000E+00        0.000E+00        0.000E+00        0.000E+00        0.000E+00        0.000E+00        0.000E+00        0.000E+00        0.000E+00        0.000E+00
  55 2000        0.000E+00        0.000E+00        0.000E+00        0.000E+00        0.000E+00        0.000E+00        0.000E+00        0.000E+00        0.000E+00        0.000E+00        0.000E+00        0.000E+00        0.000E+00        0.000E+00        0.000E+00        0.000E+00        0.000E+00        0.000E+00
  56 2000        0.000E+00        0.000E+00        0.000E+00        0.000E+00        0.000E+00        0.000E+00        0.000E+00        0.000E+00        0.000E+00        0.000E+00        0.000E+00        0.000E+00        0.000E+00        0.000E+00        0.000E+00        0.000E+00        0.000E+00        0.000E+00
  57 2000        0.000E+00        0.000E+00        0.000E+00        0.000E+00        0.000E+00        0.000E+00        0.000E+00        0.000E+00        0.000E+00        0.000E+00        0.000E+00        0.000E+00        0.000E+00        0.000E+00        0.000E+00        0.000E+00        0.000E+00        0.000E+00
  58 2000        0.000E+00        0.000E+00        0.000E+00        0.000E+00        0.000E+00        0.000E+00        0.000E+00        0.000E+00        0.000E+00        0.000E+00        0.000E+00        0.000E+00        0.000E+00        0.000E+00        0.000E+00        0.000E+00        0.000E+00        0.000E+00
  59 2000        0.000E+00        0.000E+00        0.000E+00        0.000E+00        0.000E+00        0.000E+00        0.000E+00        0.000E+00        0.000E+00        0.000E+00        0.000E+00        0.000E+00        0.000E+00        0.000E+00        0.000E+00        0.000E+00        0.000E+00        0.000E+00
  60 2000        0.000E+00        0.000E+00        0.000E+00        0.000E+00        0.000E+00        0.000E+00        0.000E+00        0.000E+00        0.000E+00        0.000E+00        0.000E+00        0.000E+00        0.000E+00        0.000E+00        0.000E+00        0.000E+00        0.000E+00        0.000E+00
  61 2000        0.000E+00        0.000E+00        0.000E+00        0.000E+00        0.000E+00        0.000E+00        0.000E+00        0.000E+00        0.000E+00        0.000E+00        0.000E+00        0.000E+00        0.000E+00        0.000E+00        0.000E+00        0.000E+00        0.000E+00        0.000E+00
  62 2000        0.000E+00        0.000E+00        0.000E+00        0.000E+00        0.000E+00        0.000E+00        0.000E+00        0.000E+00        0.000E+00        0.000E+00        0.000E+00        0.000E+00        0.000E+00        0.000E+00        0.000E+00        0.000E+00        0.000E+00        0.000E+00
  63 2000        0.000E+00        0.000E+00        0.000E+00        0.000E+00        0.000E+00        0.000E+00        0.000E+00        0.000E+00        0.000E+00        0.000E+00        0.000E+00        0.000E+00        0.000E+00        0.000E+00        0.000E+00        0.000E+00        0.000E+00        0.000E+00
  64 2000        0.000E+00        0.000E+00        0.000E+00        0.000E+00        0.000E+00        0.000E+00        0.000E+00        0.000E+00        0.000E+00        0.000E+00        0.000E+00        0.000E+00        0.000E+00        0.000E+00        0.000E+00        0.000E+00        0.000E+00        0.000E+00
  65 2000        0.000E+00        0.000E+00        0.000E+00        0.000E+00        0.000E+00        0.000E+00        0.000E+00        0.000E+00        0.000E+00        0.000E+00        0.000E+00        0.000E+00        0.000E+00        0.000E+00        0.000E+00        0.000E+00        0.000E+00        0.000E+00
  66 2000        0.000E+00        0.000E+00        0.000E+00        0.000E+00        0.000E+00        0.000E+00        0.000E+00        0.000E+00        0.000E+00        0.000E+00        0.000E+00        0.000E+00        0.000E+00        0.000E+00        0.000E+00        0.000E+00        0.000E+00        0.000E+00
  67 2000        0.000E+00        0.000E+00        0.000E+00        0.000E+00        0.000E+00        0.000E+00        0.000E+00        0.000E+00        0.000E+00        0.000E+00        0.000E+00        0.000E+00        0.000E+00        0.000E+00        0.000E+00        0.000E+00        0.000E+00        0.000E+00
  68 2000        0.000E+00        0.000E+00        0.000E+00        0.000E+00        0.000E+00        0.000E+00        0.000E+00        0.000E+00        0.000E+00        0.000E+00        0.000E+00        0.000E+00        0.000E+00        0.000E+00        0.000E+00        0.000E+00        0.000E+00        0.000E+00
  69 2000        0.000E+00        0.000E+00        0.000E+00        0.000E+00        0.000E+00        0.000E+00        0.000E+00        0.000E+00        0.000E+00        0.000E+00        0.000E+00        0.000E+00        0.000E+00        0.000E+00        0.000E+00        0.000E+00        0.000E+00        0.000E+00
  70 2000        0.000E+00        0.000E+00        0.000E+00        0.000E+00        0.000E+00        0.000E+00        0.000E+00        0.000E+00        0.000E+00        0.000E+00        0.000E+00        0.000E+00        0.000E+00        0.000E+00        0.000E+00        0.000E+00        0.000E+00        0.000E+00
  71 2000        0.000E+00        0.000E+00        0.000E+00        0.000E+00        0.000E+00        0.000E+00        0.000E+00        0.000E+00        0.000E+00        0.000E+00        0.000E+00        0.000E+00        0.000E+00        0.000E+00        0.000E+00        0.000E+00        0.000E+00        0.000E+00
  72 2000        0.000E+00        0.000E+00        0.000E+00        0.000E+00        0.000E+00        0.000E+00        0.000E+00        0.000E+00        0.000E+00        0.000E+00        0.000E+00        0.000E+00        0.000E+00        0.000E+00        0.000E+00        0.000E+00        0.000E+00        0.000E+00
  73 2000        0.000E+00        0.000E+00        0.000E+00        0.000E+00        0.000E+00        0.000E+00        0.000E+00        0.000E+00        0.000E+00        0.000E+00        0.000E+00        0.000E+00        0.000E+00        0.000E+00        0.000E+00        0.000E+00        0.000E+00        0.000E+00
  74 2000        0.000E+00        0.000E+00        0.000E+00        0.000E+00        0.000E+00        0.000E+00        0.000E+00        0.000E+00        0.000E+00        0.000E+00        0.000E+00        0.000E+00        0.000E+00        0.000E+00        0.000E+00        0.000E+00        0.000E+00        0.000E+00
  75 2000        0.000E+00        0.000E+00        0.000E+00        0.000E+00        0.000E+00        0.000E+00        0.000E+00        0.000E+00        0.000E+00        0.000E+00        0.000E+00        0.000E+00        0.000E+00        0.000E+00        0.000E+00        0.000E+00        0.000E+00        0.000E+00
  76 2000        0.000E+00        0.000E+00        0.000E+00        0.000E+00        0.000E+00        0.000E+00        0.000E+00        0.000E+00        0.000E+00        0.000E+00        0.000E+00        0.000E+00        0.000E+00        0.000E+00        0.000E+00        0.000E+00        0.000E+00        0.000E+00
  77 2000        0.000E+00        0.000E+00        0.000E+00        0.000E+00        0.000E+00        0.000E+00        0.000E+00        0.000E+00        0.000E+00        0.000E+00        0.000E+00        0.000E+00        0.000E+00        0.000E+00        0.000E+00        0.000E+00        0.000E+00        0.000E+00
  78 2000        0.000E+00        0.000E+00        0.000E+00        0.000E+00        0.000E+00        0.000E+00        0.000E+00        0.000E+00        0.000E+00        0.000E+00        0.000E+00        0.000E+00        0.000E+00        0.000E+00        0.000E+00        0.000E+00        0.000E+00        0.000E+00
  79 2000        0.000E+00        0.000E+00        0.000E+00        0.000E+00        0.000E+00        0.000E+00        0.000E+00        0.000E+00        0.000E+00        0.000E+00        0.000E+00        0.000E+00        0.000E+00        0.000E+00        0.000E+00        0.000E+00        0.000E+00        0.000E+00
  80 2000        0.000E+00        0.000E+00        0.000E+00        0.000E+00        0.000E+00        0.000E+00        0.000E+00        0.000E+00        0.000E+00        0.000E+00        0.000E+00        0.000E+00        0.000E+00        0.000E+00        0.000E+00        0.000E+00        0.000E+00        0.000E+00
  81 2000        0.000E+00        0.000E+00        0.000E+00        0.000E+00        0.000E+00        0.000E+00        0.000E+00        0.000E+00        0.000E+00        0.000E+00        0.000E+00        0.000E+00        0.000E+00        0.000E+00        0.000E+00        0.000E+00        0.000E+00        0.000E+00
  82 2000        0.000E+00        0.000E+00        0.000E+00        0.000E+00        0.000E+00        0.000E+00        0.000E+00        0.000E+00        0.000E+00        0.000E+00        0.000E+00        0.000E+00        0.000E+00        0.000E+00        0.000E+00        0.000E+00        0.000E+00        0.000E+00
  83 2000        0.000E+00        0.000E+00        0.000E+00        0.000E+00        0.000E+00        0.000E+00        0.000E+00        0.000E+00        0.000E+00        0.000E+00        0.000E+00        0.000E+00        0.000E+00        0.000E+00        0.000E+00        0.000E+00        0.000E+00        0.000E+00
  84 2000        0.000E+00        0.000E+00        0.000E+00        0.000E+00        0.000E+00        0.000E+00        0.000E+00        0.000E+00        0.000E+00        0.000E+00        0.000E+00        0.000E+00        0.000E+00        0.000E+00        0.000E+00        0.000E+00        0.000E+00        0.000E+00
  85 2000        0.000E+00        0.000E+00        0.000E+00        0.000E+00        0.000E+00        0.000E+00        0.000E+00        0.000E+00        0.000E+00        0.000E+00        0.000E+00        0.000E+00        0.000E+00        0.000E+00        0.000E+00        0.000E+00        0.000E+00        0.000E+00
  86 2000        0.000E+00        0.000E+00        0.000E+00        0.000E+00        0.000E+00        0.000E+00        0.000E+00        0.000E+00        0.000E+00        0.000E+00        0.000E+00        0.000E+00        0.000E+00        0.000E+00        0.000E+00        0.000E+00        0.000E+00        0.000E+00
  87 2000        0.000E+00        0.000E+00        0.000E+00        0.000E+00        0.000E+00        0.000E+00        0.000E+00        0.000E+00        0.000E+00        0.000E+00        0.000E+00        0.000E+00        0.000E+00        0.000E+00        0.000E+00        0.000E+00        0.000E+00        0.000E+00
  88 2000        0.000E+00        0.000E+00        0.000E+00        0.000E+00        0.000E+00        0.000E+00        0.000E+00        0.000E+00        0.000E+00        0.000E+00        0.000E+00        0.000E+00        0.000E+00        0.000E+00        0.000E+00        0.000E+00        0.000E+00        0.000E+00
  89 2000        0.000E+00        0.000E+00        0.000E+00        0.000E+00        0.000E+00        0.000E+00        0.000E+00        0.000E+00        0.000E+00        0.000E+00        0.000E+00        0.000E+00        0.000E+00        0.000E+00        0.000E+00        0.000E+00        0.000E+00        0.000E+00
  90 2000        0.000E+00        0.000E+00        0.000E+00        0.000E+00        0.000E+00        0.000E+00        0.000E+00        0.000E+00        0.000E+00        0.000E+00        0.000E+00        0.000E+00        0.000E+00        0.000E+00        0.000E+00        0.000E+00        0.000E+00        0.000E+00
  91 2000        0.000E+00        0.000E+00        0.000E+00        0.000E+00        0.000E+00        0.000E+00        0.000E+00        0.000E+00        0.000E+00        0.000E+00        0.000E+00        0.000E+00        0.000E+00        0.000E+00        0.000E+00        0.000E+00        0.000E+00        0.000E+00
  92 2000        0.000E+00        0.000E+00        0.000E+00        0.000E+00        0.000E+00        0.000E+00        0.000E+00        0.000E+00        0.000E+00        0.000E+00        0.000E+00        0.000E+00        0.000E+00        0.000E+00        0.000E+00        0.000E+00        0.000E+00        0.000E+00
  93 2000        0.000E+00        0.000E+00        0.000E+00        0.000E+00        0.000E+00        0.000E+00        0.000E+00        0.000E+00        0.000E+00        0.000E+00        0.000E+00        0.000E+00        0.000E+00        0.000E+00        0.000E+00        0.000E+00        0.000E+00        0.000E+00